This repository is really very much STILL Forking awesome.

New line.
